/*--------------------------------*- C++ -*----------------------------------*\
| =========                 |                                                 |
| \\      /  F ield         | OpenFOAM: The Open Source CFD Toolbox           |
|  \\    /   O peration     | Version:  2406                                  |
|   \\  /    A nd           | Website:  www.openfoam.com                      |
|    \\/     M anipulation  |                                                 |
\*---------------------------------------------------------------------------*/
FoamFile
{
    version     2.0;
    format      ascii;
    arch        "LSB;label=32;scalar=64";
    class       featureEdgeMesh;
    location    "constant/triSurface";
    object      little_head_6parts_m.eMesh;
}
// * * * * * * * * * * * * * * * * * * * * * * * * * * * * * * * * * * * * * //


// points:

132
(
(1.5 1.5 0)
(-1.5 1.5 0)
(-1.5 -1.5 0)
(1.5 -1.5 0)
(1.5 1.5 3.5)
(-1.5 1.5 3.5)
(-1.5 -1.5 3.5)
(1.5 -1.5 3.5)
(-0.45 0.45 4.55)
(0.45 0.45 4.55)
(-0.45 -0.45 4.55)
(0.45 -0.45 4.55)
(0.025 1.025 0.725)
(0.025 1.025 0.7)
(-0.025 1.025 0.7)
(-0.025 1.025 0.725)
(-0.82 1.4 0.475)
(-0.82 1 0.475)
(-0.82 1 0.3)
(-0.82 1.4 0.3)
(-0.38 1 0.475)
(-0.38 1 0.3)
(-0.38 1.4 0.475)
(-0.38 1.4 0.3)
(-0.82 1.4 0.75)
(-0.82 1 0.75)
(-0.82 1 0.575)
(-0.82 1.4 0.575)
(-0.38 1 0.75)
(-0.38 1 0.575)
(-0.38 1.4 0.75)
(-0.38 1.4 0.575)
(-0.22 1.4 0.475)
(-0.22 1 0.475)
(-0.22 1 0.3)
(-0.22 1.4 0.3)
(0.22 1 0.475)
(0.22 1 0.3)
(0.22 1.4 0.475)
(0.22 1.4 0.3)
(0.38 1.4 0.475)
(0.38 1 0.475)
(0.38 1 0.3)
(0.38 1.4 0.3)
(0.82 1 0.475)
(0.82 1 0.3)
(0.82 1.4 0.475)
(0.82 1.4 0.3)
(-0.22 1.4 0.75)
(-0.22 1 0.75)
(-0.22 1 0.575)
(-0.22 1.4 0.575)
(0.22 1 0.75)
(0.22 1 0.575)
(0.22 1.4 0.75)
(0.22 1.4 0.575)
(0.38 1.4 0.75)
(0.38 1 0.75)
(0.38 1 0.575)
(0.38 1.4 0.575)
(0.82 1 0.75)
(0.82 1 0.575)
(0.82 1.4 0.75)
(0.82 1.4 0.575)
(-0.82 1.4 1.025)
(-0.82 1 1.025)
(-0.82 1 0.85)
(-0.82 1.4 0.85)
(-0.38 1 1.025)
(-0.38 1 0.85)
(-0.38 1.4 1.025)
(-0.38 1.4 0.85)
(-0.82 1.4 1.3)
(-0.82 1 1.3)
(-0.82 1 1.125)
(-0.82 1.4 1.125)
(-0.38 1 1.3)
(-0.38 1 1.125)
(-0.38 1.4 1.3)
(-0.38 1.4 1.125)
(-0.22 1.4 1.025)
(-0.22 1 1.025)
(-0.22 1 0.85)
(-0.22 1.4 0.85)
(0.22 1 1.025)
(0.22 1 0.85)
(0.22 1.4 1.025)
(0.22 1.4 0.85)
(0.38 1.4 1.025)
(0.38 1 1.025)
(0.38 1 0.85)
(0.38 1.4 0.85)
(0.82 1 1.025)
(0.82 1 0.85)
(0.82 1.4 1.025)
(0.82 1.4 0.85)
(-0.22 1.4 1.3)
(-0.22 1 1.3)
(-0.22 1 1.125)
(-0.22 1.4 1.125)
(0.22 1 1.3)
(0.22 1 1.125)
(0.22 1.4 1.3)
(0.22 1.4 1.125)
(0.38 1.4 1.3)
(0.38 1 1.3)
(0.38 1 1.125)
(0.38 1.4 1.125)
(0.82 1 1.3)
(0.82 1 1.125)
(0.82 1.4 1.3)
(0.82 1.4 1.125)
(0.025 1 0.7)
(0.025 1 0.725)
(-0.025 1 0.7)
(-0.025 1 0.725)
(-1.5 1.5 0.475)
(1.5 1.5 0.475)
(-1.5 -1.5 0.475)
(1.5 -1.5 0.475)
(-1.5 1.5 0.75)
(1.5 1.5 0.75)
(-1.5 -1.5 0.75)
(1.5 -1.5 0.75)
(-1.5 1.5 1.025)
(1.5 1.5 1.025)
(-1.5 -1.5 1.025)
(1.5 -1.5 1.025)
(-1.5 1.5 1.3)
(1.5 1.5 1.3)
(-1.5 -1.5 1.3)
(1.5 -1.5 1.3)
)


// edges:

192
(
(1 116)
(0 1)
(117 0)
(1 2)
(2 118)
(3 0)
(119 3)
(3 2)
(116 120)
(121 117)
(118 122)
(123 119)
(120 124)
(125 121)
(122 126)
(127 123)
(124 128)
(129 125)
(126 130)
(131 127)
(128 5)
(5 4)
(4 129)
(130 6)
(6 5)
(4 7)
(7 131)
(8 9)
(5 8)
(9 4)
(7 6)
(10 8)
(6 10)
(9 11)
(11 7)
(10 11)
(112 13)
(13 12)
(12 113)
(114 14)
(14 13)
(115 15)
(15 14)
(12 15)
(17 18)
(16 17)
(19 16)
(18 19)
(17 20)
(20 21)
(21 18)
(22 16)
(19 23)
(23 22)
(22 20)
(21 23)
(25 26)
(24 25)
(27 24)
(26 27)
(25 28)
(28 29)
(29 26)
(30 24)
(27 31)
(31 30)
(30 28)
(29 31)
(33 34)
(32 33)
(35 32)
(34 35)
(33 36)
(36 37)
(37 34)
(38 32)
(35 39)
(39 38)
(38 36)
(37 39)
(41 42)
(40 41)
(43 40)
(42 43)
(41 44)
(44 45)
(45 42)
(46 40)
(43 47)
(47 46)
(46 44)
(45 47)
(49 50)
(48 49)
(51 48)
(50 51)
(52 53)
(112 113)
(114 112)
(53 50)
(115 114)
(49 52)
(113 115)
(54 48)
(51 55)
(55 54)
(54 52)
(53 55)
(57 58)
(56 57)
(59 56)
(58 59)
(57 60)
(60 61)
(61 58)
(62 56)
(59 63)
(63 62)
(62 60)
(61 63)
(65 66)
(64 65)
(67 64)
(66 67)
(65 68)
(68 69)
(69 66)
(70 64)
(67 71)
(71 70)
(70 68)
(69 71)
(73 74)
(72 73)
(75 72)
(74 75)
(73 76)
(76 77)
(77 74)
(78 72)
(75 79)
(79 78)
(78 76)
(77 79)
(81 82)
(80 81)
(83 80)
(82 83)
(81 84)
(84 85)
(85 82)
(86 80)
(83 87)
(87 86)
(86 84)
(85 87)
(89 90)
(88 89)
(91 88)
(90 91)
(89 92)
(92 93)
(93 90)
(94 88)
(91 95)
(95 94)
(94 92)
(93 95)
(97 98)
(96 97)
(99 96)
(98 99)
(97 100)
(100 101)
(101 98)
(102 96)
(99 103)
(103 102)
(102 100)
(101 103)
(105 106)
(104 105)
(107 104)
(106 107)
(105 108)
(108 109)
(109 106)
(110 104)
(107 111)
(111 110)
(110 108)
(109 111)
)

// * * * * * * * * * * * * * * * * * * * * * * * * * * * * * * * * * * * * * //


// ************************************************************************* //
